
---------- Begin Simulation Statistics ----------
sim_seconds                                  1.935023                       # Number of seconds simulated
sim_ticks                                1935023218000                       # Number of ticks simulated
final_tick                               1935023218000                       # Number of ticks from beginning of simulation (restored from checkpoints and never reset)
sim_freq                                 1000000000000                       # Frequency of simulated ticks
host_inst_rate                                1172292                       # Simulator instruction rate (inst/s)
host_op_rate                                  1877943                       # Simulator op (including micro ops) rate (op/s)
host_tick_rate                             2435226044                       # Simulator tick rate (ticks/s)
host_mem_usage                                 664052                       # Number of bytes of host memory used
host_seconds                                   794.60                       # Real time elapsed on the host
sim_insts                                   931499914                       # Number of instructions simulated
sim_ops                                    1492207796                       # Number of ops (including micro ops) simulated
system.voltage_domain.voltage                       1                       # Voltage in Volts
system.clk_domain.clock                          1000                       # Clock period in ticks
system.mem_ctrls.pwrStateResidencyTicks::UNDEFINED 1935023218000                       # Cumulative time (in ticks) in various power states
system.mem_ctrls.bytes_read::cpu.inst           22848                       # Number of bytes read from this memory
system.mem_ctrls.bytes_read::cpu.data         1094464                       # Number of bytes read from this memory
system.mem_ctrls.bytes_read::total            1117312                       # Number of bytes read from this memory
system.mem_ctrls.bytes_inst_read::cpu.inst        22848                       # Number of instructions bytes read from this memory
system.mem_ctrls.bytes_inst_read::total         22848                       # Number of instructions bytes read from this memory
system.mem_ctrls.bytes_written::writebacks        44224                       # Number of bytes written to this memory
system.mem_ctrls.bytes_written::total           44224                       # Number of bytes written to this memory
system.mem_ctrls.num_reads::cpu.inst              357                       # Number of read requests responded to by this memory
system.mem_ctrls.num_reads::cpu.data            17101                       # Number of read requests responded to by this memory
system.mem_ctrls.num_reads::total               17458                       # Number of read requests responded to by this memory
system.mem_ctrls.num_writes::writebacks           691                       # Number of write requests responded to by this memory
system.mem_ctrls.num_writes::total                691                       # Number of write requests responded to by this memory
system.mem_ctrls.bw_read::cpu.inst              11808                       # Total read bandwidth from this memory (bytes/s)
system.mem_ctrls.bw_read::cpu.data             565608                       # Total read bandwidth from this memory (bytes/s)
system.mem_ctrls.bw_read::total                577415                       # Total read bandwidth from this memory (bytes/s)
system.mem_ctrls.bw_inst_read::cpu.inst         11808                       # Instruction read bandwidth from this memory (bytes/s)
system.mem_ctrls.bw_inst_read::total            11808                       # Instruction read bandwidth from this memory (bytes/s)
system.mem_ctrls.bw_write::writebacks           22855                       # Write bandwidth from this memory (bytes/s)
system.mem_ctrls.bw_write::total                22855                       # Write bandwidth from this memory (bytes/s)
system.mem_ctrls.bw_total::writebacks           22855                       # Total bandwidth to/from this memory (bytes/s)
system.mem_ctrls.bw_total::cpu.inst             11808                       # Total bandwidth to/from this memory (bytes/s)
system.mem_ctrls.bw_total::cpu.data            565608                       # Total bandwidth to/from this memory (bytes/s)
system.mem_ctrls.bw_total::total               600270                       # Total bandwidth to/from this memory (bytes/s)
system.pwrStateResidencyTicks::UNDEFINED 1935023218000                       # Cumulative time (in ticks) in various power states
system.cpu_voltage_domain.voltage                   1                       # Voltage in Volts
system.cpu_clk_domain.clock                       500                       # Clock period in ticks
system.cpu.dtb.walker.pwrStateResidencyTicks::UNDEFINED 1935023218000                       # Cumulative time (in ticks) in various power states
system.cpu.dtb.rdAccesses                   382684109                       # TLB accesses on read requests
system.cpu.dtb.wrAccesses                    56342491                       # TLB accesses on write requests
system.cpu.dtb.rdMisses                       7936609                       # TLB misses on read requests
system.cpu.dtb.wrMisses                           272                       # TLB misses on write requests
system.cpu.apic_clk_domain.clock                 8000                       # Clock period in ticks
system.cpu.interrupts.pwrStateResidencyTicks::UNDEFINED 1935023218000                       # Cumulative time (in ticks) in various power states
system.cpu.itb.walker.pwrStateResidencyTicks::UNDEFINED 1935023218000                       # Cumulative time (in ticks) in various power states
system.cpu.itb.rdAccesses                           0                       # TLB accesses on read requests
system.cpu.itb.wrAccesses                  1422005645                       # TLB accesses on write requests
system.cpu.itb.rdMisses                             0                       # TLB misses on read requests
system.cpu.itb.wrMisses                            36                       # TLB misses on write requests
system.cpu.workload.numSyscalls                     9                       # Number of system calls
system.cpu.pwrStateResidencyTicks::ON    1935023218000                       # Cumulative time (in ticks) in various power states
system.cpu.numCycles                       3870046436                       # number of cpu cycles simulated
system.cpu.numWorkItemsStarted                      0                       # number of work items this cpu started
system.cpu.numWorkItemsCompleted                    0                       # number of work items this cpu completed
system.cpu.committedInsts                   931499914                       # Number of instructions committed
system.cpu.committedOps                    1492207796                       # Number of ops (including micro ops) committed
system.cpu.num_int_alu_accesses            1491701082                       # Number of integer alu accesses
system.cpu.num_fp_alu_accesses                   1959                       # Number of float alu accesses
system.cpu.num_vec_alu_accesses                     0                       # Number of vector alu accesses
system.cpu.num_func_calls                     1080242                       # number of times a function call or return occured
system.cpu.num_conditional_control_insts     29571460                       # number of instructions that are conditional controls
system.cpu.num_int_insts                   1491701082                       # number of integer instructions
system.cpu.num_fp_insts                          1959                       # number of float instructions
system.cpu.num_vec_insts                            0                       # number of vector instructions
system.cpu.num_int_register_reads          2934935078                       # number of times the integer registers were read
system.cpu.num_int_register_writes         1545512954                       # number of times the integer registers were written
system.cpu.num_fp_register_reads                 3779                       # number of times the floating registers were read
system.cpu.num_fp_register_writes                1484                       # number of times the floating registers were written
system.cpu.num_vec_register_reads                   0                       # number of times the vector registers were read
system.cpu.num_vec_register_writes                  0                       # number of times the vector registers were written
system.cpu.num_cc_register_reads            159199331                       # number of times the CC registers were read
system.cpu.num_cc_register_writes           523310542                       # number of times the CC registers were written
system.cpu.num_mem_refs                     439026595                       # number of memory refs
system.cpu.num_load_insts                   382684105                       # Number of load instructions
system.cpu.num_store_insts                   56342490                       # Number of store instructions
system.cpu.num_idle_cycles                          0                       # Number of idle cycles
system.cpu.num_busy_cycles                 3870046436                       # Number of busy cycles
system.cpu.not_idle_fraction                        1                       # Percentage of non-idle cycles
system.cpu.idle_fraction                            0                       # Percentage of idle cycles
system.cpu.Branches                          30742412                       # Number of branches fetched
system.cpu.op_class::No_OpClass                505293      0.03%      0.03% # Class of executed instruction
system.cpu.op_class::IntAlu                 914844162     61.31%     61.34% # Class of executed instruction
system.cpu.op_class::IntMult                135270004      9.07%     70.41% # Class of executed instruction
system.cpu.op_class::IntDiv                   2560782      0.17%     70.58% # Class of executed instruction
system.cpu.op_class::FloatAdd                      10      0.00%     70.58% # Class of executed instruction
system.cpu.op_class::FloatCmp                       0      0.00%     70.58% # Class of executed instruction
system.cpu.op_class::FloatCvt                       0      0.00%     70.58% # Class of executed instruction
system.cpu.op_class::FloatMult                      0      0.00%     70.58% # Class of executed instruction
system.cpu.op_class::FloatMultAcc                   0      0.00%     70.58% # Class of executed instruction
system.cpu.op_class::FloatDiv                       0      0.00%     70.58% # Class of executed instruction
system.cpu.op_class::FloatMisc                      0      0.00%     70.58% # Class of executed instruction
system.cpu.op_class::FloatSqrt                      0      0.00%     70.58% # Class of executed instruction
system.cpu.op_class::SimdAdd                      374      0.00%     70.58% # Class of executed instruction
system.cpu.op_class::SimdAddAcc                     0      0.00%     70.58% # Class of executed instruction
system.cpu.op_class::SimdAlu                       68      0.00%     70.58% # Class of executed instruction
system.cpu.op_class::SimdCmp                        0      0.00%     70.58% # Class of executed instruction
system.cpu.op_class::SimdCvt                      108      0.00%     70.58% # Class of executed instruction
system.cpu.op_class::SimdMisc                     214      0.00%     70.58% # Class of executed instruction
system.cpu.op_class::SimdMult                       0      0.00%     70.58% # Class of executed instruction
system.cpu.op_class::SimdMultAcc                    0      0.00%     70.58% # Class of executed instruction
system.cpu.op_class::SimdShift                    186      0.00%     70.58% # Class of executed instruction
system.cpu.op_class::SimdShiftAcc                   0      0.00%     70.58% # Class of executed instruction
system.cpu.op_class::SimdSqrt                       0      0.00%     70.58% # Class of executed instruction
system.cpu.op_class::SimdFloatAdd                   0      0.00%     70.58% # Class of executed instruction
system.cpu.op_class::SimdFloatAlu                   0      0.00%     70.58% # Class of executed instruction
system.cpu.op_class::SimdFloatCmp                   0      0.00%     70.58% # Class of executed instruction
system.cpu.op_class::SimdFloatCvt                   0      0.00%     70.58% # Class of executed instruction
system.cpu.op_class::SimdFloatDiv                   0      0.00%     70.58% # Class of executed instruction
system.cpu.op_class::SimdFloatMisc                  0      0.00%     70.58% # Class of executed instruction
system.cpu.op_class::SimdFloatMult                  0      0.00%     70.58% # Class of executed instruction
system.cpu.op_class::SimdFloatMultAcc               0      0.00%     70.58% # Class of executed instruction
system.cpu.op_class::SimdFloatSqrt                  0      0.00%     70.58% # Class of executed instruction
system.cpu.op_class::MemRead                382684045     25.65%     96.22% # Class of executed instruction
system.cpu.op_class::MemWrite                56342063      3.78%    100.00% # Class of executed instruction
system.cpu.op_class::FloatMemRead                  60      0.00%    100.00% # Class of executed instruction
system.cpu.op_class::FloatMemWrite                427      0.00%    100.00% # Class of executed instruction
system.cpu.op_class::IprAccess                      0      0.00%    100.00% # Class of executed instruction
system.cpu.op_class::InstPrefetch                   0      0.00%    100.00% # Class of executed instruction
system.cpu.op_class::total                 1492207796                       # Class of executed instruction
system.cpu.dcache.tags.pwrStateResidencyTicks::UNDEFINED 1935023218000                       # Cumulative time (in ticks) in various power states
system.cpu.dcache.tags.tagsinuse           511.895326                       # Cycle average of tags in use
system.cpu.dcache.tags.total_refs           439026600                       # Total number of references to valid blocks.
system.cpu.dcache.tags.sampled_refs           3127034                       # Sample count of references to valid blocks.
system.cpu.dcache.tags.avg_refs            140.397130                       # Average number of references to valid blocks.
system.cpu.dcache.tags.warmup_cycle            759000                       # Cycle when the warmup percentage was hit.
system.cpu.dcache.tags.occ_blocks::cpu.data   511.895326                       # Average occupied blocks per requestor
system.cpu.dcache.tags.occ_percent::cpu.data     0.999796                       # Average percentage of cache occupancy
system.cpu.dcache.tags.occ_percent::total     0.999796                       # Average percentage of cache occupancy
system.cpu.dcache.tags.occ_task_id_blocks::1024          512                       # Occupied blocks per task id
system.cpu.dcache.tags.age_task_id_blocks_1024::0           10                       # Occupied blocks per task id
system.cpu.dcache.tags.age_task_id_blocks_1024::1           53                       # Occupied blocks per task id
system.cpu.dcache.tags.age_task_id_blocks_1024::2          448                       # Occupied blocks per task id
system.cpu.dcache.tags.age_task_id_blocks_1024::4            1                       # Occupied blocks per task id
system.cpu.dcache.tags.occ_task_id_percent::1024            1                       # Percentage of cache occupancy per task id
system.cpu.dcache.tags.tag_accesses         881180234                       # Number of tag accesses
system.cpu.dcache.tags.data_accesses        881180234                       # Number of data accesses
system.cpu.dcache.pwrStateResidencyTicks::UNDEFINED 1935023218000                       # Cumulative time (in ticks) in various power states
system.cpu.dcache.ReadReq_hits::cpu.data    379577443                       # number of ReadReq hits
system.cpu.dcache.ReadReq_hits::total       379577443                       # number of ReadReq hits
system.cpu.dcache.WriteReq_hits::cpu.data     56322123                       # number of WriteReq hits
system.cpu.dcache.WriteReq_hits::total       56322123                       # number of WriteReq hits
system.cpu.dcache.demand_hits::cpu.data     435899566                       # number of demand (read+write) hits
system.cpu.dcache.demand_hits::total        435899566                       # number of demand (read+write) hits
system.cpu.dcache.overall_hits::cpu.data    435899566                       # number of overall hits
system.cpu.dcache.overall_hits::total       435899566                       # number of overall hits
system.cpu.dcache.ReadReq_misses::cpu.data      3106666                       # number of ReadReq misses
system.cpu.dcache.ReadReq_misses::total       3106666                       # number of ReadReq misses
system.cpu.dcache.WriteReq_misses::cpu.data        20368                       # number of WriteReq misses
system.cpu.dcache.WriteReq_misses::total        20368                       # number of WriteReq misses
system.cpu.dcache.demand_misses::cpu.data      3127034                       # number of demand (read+write) misses
system.cpu.dcache.demand_misses::total        3127034                       # number of demand (read+write) misses
system.cpu.dcache.overall_misses::cpu.data      3127034                       # number of overall misses
system.cpu.dcache.overall_misses::total       3127034                       # number of overall misses
system.cpu.dcache.ReadReq_miss_latency::cpu.data  75967665000                       # number of ReadReq miss cycles
system.cpu.dcache.ReadReq_miss_latency::total  75967665000                       # number of ReadReq miss cycles
system.cpu.dcache.WriteReq_miss_latency::cpu.data   1082799000                       # number of WriteReq miss cycles
system.cpu.dcache.WriteReq_miss_latency::total   1082799000                       # number of WriteReq miss cycles
system.cpu.dcache.demand_miss_latency::cpu.data  77050464000                       # number of demand (read+write) miss cycles
system.cpu.dcache.demand_miss_latency::total  77050464000                       # number of demand (read+write) miss cycles
system.cpu.dcache.overall_miss_latency::cpu.data  77050464000                       # number of overall miss cycles
system.cpu.dcache.overall_miss_latency::total  77050464000                       # number of overall miss cycles
system.cpu.dcache.ReadReq_accesses::cpu.data    382684109                       # number of ReadReq accesses(hits+misses)
system.cpu.dcache.ReadReq_accesses::total    382684109                       # number of ReadReq accesses(hits+misses)
system.cpu.dcache.WriteReq_accesses::cpu.data     56342491                       # number of WriteReq accesses(hits+misses)
system.cpu.dcache.WriteReq_accesses::total     56342491                       # number of WriteReq accesses(hits+misses)
system.cpu.dcache.demand_accesses::cpu.data    439026600                       # number of demand (read+write) accesses
system.cpu.dcache.demand_accesses::total    439026600                       # number of demand (read+write) accesses
system.cpu.dcache.overall_accesses::cpu.data    439026600                       # number of overall (read+write) accesses
system.cpu.dcache.overall_accesses::total    439026600                       # number of overall (read+write) accesses
system.cpu.dcache.ReadReq_miss_rate::cpu.data     0.008118                       # miss rate for ReadReq accesses
system.cpu.dcache.ReadReq_miss_rate::total     0.008118                       # miss rate for ReadReq accesses
system.cpu.dcache.WriteReq_miss_rate::cpu.data     0.000362                       # miss rate for WriteReq accesses
system.cpu.dcache.WriteReq_miss_rate::total     0.000362                       # miss rate for WriteReq accesses
system.cpu.dcache.demand_miss_rate::cpu.data     0.007123                       # miss rate for demand accesses
system.cpu.dcache.demand_miss_rate::total     0.007123                       # miss rate for demand accesses
system.cpu.dcache.overall_miss_rate::cpu.data     0.007123                       # miss rate for overall accesses
system.cpu.dcache.overall_miss_rate::total     0.007123                       # miss rate for overall accesses
system.cpu.dcache.ReadReq_avg_miss_latency::cpu.data 24453.116299                       # average ReadReq miss latency
system.cpu.dcache.ReadReq_avg_miss_latency::total 24453.116299                       # average ReadReq miss latency
system.cpu.dcache.WriteReq_avg_miss_latency::cpu.data 53161.773370                       # average WriteReq miss latency
system.cpu.dcache.WriteReq_avg_miss_latency::total 53161.773370                       # average WriteReq miss latency
system.cpu.dcache.demand_avg_miss_latency::cpu.data 24640.110725                       # average overall miss latency
system.cpu.dcache.demand_avg_miss_latency::total 24640.110725                       # average overall miss latency
system.cpu.dcache.overall_avg_miss_latency::cpu.data 24640.110725                       # average overall miss latency
system.cpu.dcache.overall_avg_miss_latency::total 24640.110725                       # average overall miss latency
system.cpu.dcache.blocked_cycles::no_mshrs            0                       # number of cycles access was blocked
system.cpu.dcache.blocked_cycles::no_targets            0                       # number of cycles access was blocked
system.cpu.dcache.blocked::no_mshrs                 0                       # number of cycles access was blocked
system.cpu.dcache.blocked::no_targets               0                       # number of cycles access was blocked
system.cpu.dcache.avg_blocked_cycles::no_mshrs          nan                       # average number of cycles each access was blocked
system.cpu.dcache.avg_blocked_cycles::no_targets          nan                       # average number of cycles each access was blocked
system.cpu.dcache.writebacks::writebacks      1433817                       # number of writebacks
system.cpu.dcache.writebacks::total           1433817                       # number of writebacks
system.cpu.dcache.ReadReq_mshr_misses::cpu.data      3106666                       # number of ReadReq MSHR misses
system.cpu.dcache.ReadReq_mshr_misses::total      3106666                       # number of ReadReq MSHR misses
system.cpu.dcache.WriteReq_mshr_misses::cpu.data        20368                       # number of WriteReq MSHR misses
system.cpu.dcache.WriteReq_mshr_misses::total        20368                       # number of WriteReq MSHR misses
system.cpu.dcache.demand_mshr_misses::cpu.data      3127034                       # number of demand (read+write) MSHR misses
system.cpu.dcache.demand_mshr_misses::total      3127034                       # number of demand (read+write) MSHR misses
system.cpu.dcache.overall_mshr_misses::cpu.data      3127034                       # number of overall MSHR misses
system.cpu.dcache.overall_mshr_misses::total      3127034                       # number of overall MSHR misses
system.cpu.dcache.ReadReq_mshr_miss_latency::cpu.data  72860999000                       # number of ReadReq MSHR miss cycles
system.cpu.dcache.ReadReq_mshr_miss_latency::total  72860999000                       # number of ReadReq MSHR miss cycles
system.cpu.dcache.WriteReq_mshr_miss_latency::cpu.data   1062431000                       # number of WriteReq MSHR miss cycles
system.cpu.dcache.WriteReq_mshr_miss_latency::total   1062431000                       # number of WriteReq MSHR miss cycles
system.cpu.dcache.demand_mshr_miss_latency::cpu.data  73923430000                       # number of demand (read+write) MSHR miss cycles
system.cpu.dcache.demand_mshr_miss_latency::total  73923430000                       # number of demand (read+write) MSHR miss cycles
system.cpu.dcache.overall_mshr_miss_latency::cpu.data  73923430000                       # number of overall MSHR miss cycles
system.cpu.dcache.overall_mshr_miss_latency::total  73923430000                       # number of overall MSHR miss cycles
system.cpu.dcache.ReadReq_mshr_miss_rate::cpu.data     0.008118                       # mshr miss rate for ReadReq accesses
system.cpu.dcache.ReadReq_mshr_miss_rate::total     0.008118                       # mshr miss rate for ReadReq accesses
system.cpu.dcache.WriteReq_mshr_miss_rate::cpu.data     0.000362                       # mshr miss rate for WriteReq accesses
system.cpu.dcache.WriteReq_mshr_miss_rate::total     0.000362                       # mshr miss rate for WriteReq accesses
system.cpu.dcache.demand_mshr_miss_rate::cpu.data     0.007123                       # mshr miss rate for demand accesses
system.cpu.dcache.demand_mshr_miss_rate::total     0.007123                       # mshr miss rate for demand accesses
system.cpu.dcache.overall_mshr_miss_rate::cpu.data     0.007123                       # mshr miss rate for overall accesses
system.cpu.dcache.overall_mshr_miss_rate::total     0.007123                       # mshr miss rate for overall accesses
system.cpu.dcache.ReadReq_avg_mshr_miss_latency::cpu.data 23453.116299                       # average ReadReq mshr miss latency
system.cpu.dcache.ReadReq_avg_mshr_miss_latency::total 23453.116299                       # average ReadReq mshr miss latency
system.cpu.dcache.WriteReq_avg_mshr_miss_latency::cpu.data 52161.773370                       # average WriteReq mshr miss latency
system.cpu.dcache.WriteReq_avg_mshr_miss_latency::total 52161.773370                       # average WriteReq mshr miss latency
system.cpu.dcache.demand_avg_mshr_miss_latency::cpu.data 23640.110725                       # average overall mshr miss latency
system.cpu.dcache.demand_avg_mshr_miss_latency::total 23640.110725                       # average overall mshr miss latency
system.cpu.dcache.overall_avg_mshr_miss_latency::cpu.data 23640.110725                       # average overall mshr miss latency
system.cpu.dcache.overall_avg_mshr_miss_latency::total 23640.110725                       # average overall mshr miss latency
system.cpu.dcache.replacements                3126522                       # number of replacements
system.cpu.dtb_walker_cache.tags.pwrStateResidencyTicks::UNDEFINED 1935023218000                       # Cumulative time (in ticks) in various power states
system.cpu.dtb_walker_cache.tags.tagsinuse            0                       # Cycle average of tags in use
system.cpu.dtb_walker_cache.tags.total_refs            0                       # Total number of references to valid blocks.
system.cpu.dtb_walker_cache.tags.sampled_refs            0                       # Sample count of references to valid blocks.
system.cpu.dtb_walker_cache.tags.avg_refs          nan                       # Average number of references to valid blocks.
system.cpu.dtb_walker_cache.tags.warmup_cycle            0                       # Cycle when the warmup percentage was hit.
system.cpu.dtb_walker_cache.tags.tag_accesses            0                       # Number of tag accesses
system.cpu.dtb_walker_cache.tags.data_accesses            0                       # Number of data accesses
system.cpu.dtb_walker_cache.pwrStateResidencyTicks::UNDEFINED 1935023218000                       # Cumulative time (in ticks) in various power states
system.cpu.dtb_walker_cache.blocked_cycles::no_mshrs            0                       # number of cycles access was blocked
system.cpu.dtb_walker_cache.blocked_cycles::no_targets            0                       # number of cycles access was blocked
system.cpu.dtb_walker_cache.blocked::no_mshrs            0                       # number of cycles access was blocked
system.cpu.dtb_walker_cache.blocked::no_targets            0                       # number of cycles access was blocked
system.cpu.dtb_walker_cache.avg_blocked_cycles::no_mshrs          nan                       # average number of cycles each access was blocked
system.cpu.dtb_walker_cache.avg_blocked_cycles::no_targets          nan                       # average number of cycles each access was blocked
system.cpu.dtb_walker_cache.replacements            0                       # number of replacements
system.cpu.icache.tags.pwrStateResidencyTicks::UNDEFINED 1935023218000                       # Cumulative time (in ticks) in various power states
system.cpu.icache.tags.tagsinuse           283.935872                       # Cycle average of tags in use
system.cpu.icache.tags.total_refs          1422005645                       # Total number of references to valid blocks.
system.cpu.icache.tags.sampled_refs               357                       # Sample count of references to valid blocks.
system.cpu.icache.tags.avg_refs          3983209.089636                       # Average number of references to valid blocks.
system.cpu.icache.tags.warmup_cycle            439000                       # Cycle when the warmup percentage was hit.
system.cpu.icache.tags.occ_blocks::cpu.inst   283.935872                       # Average occupied blocks per requestor
system.cpu.icache.tags.occ_percent::cpu.inst     0.554562                       # Average percentage of cache occupancy
system.cpu.icache.tags.occ_percent::total     0.554562                       # Average percentage of cache occupancy
system.cpu.icache.tags.occ_task_id_blocks::1024          312                       # Occupied blocks per task id
system.cpu.icache.tags.age_task_id_blocks_1024::0           11                       # Occupied blocks per task id
system.cpu.icache.tags.age_task_id_blocks_1024::1           27                       # Occupied blocks per task id
system.cpu.icache.tags.age_task_id_blocks_1024::4          274                       # Occupied blocks per task id
system.cpu.icache.tags.occ_task_id_percent::1024     0.609375                       # Percentage of cache occupancy per task id
system.cpu.icache.tags.tag_accesses        2844011647                       # Number of tag accesses
system.cpu.icache.tags.data_accesses       2844011647                       # Number of data accesses
system.cpu.icache.pwrStateResidencyTicks::UNDEFINED 1935023218000                       # Cumulative time (in ticks) in various power states
system.cpu.icache.ReadReq_hits::cpu.inst   1422005288                       # number of ReadReq hits
system.cpu.icache.ReadReq_hits::total      1422005288                       # number of ReadReq hits
system.cpu.icache.demand_hits::cpu.inst    1422005288                       # number of demand (read+write) hits
system.cpu.icache.demand_hits::total       1422005288                       # number of demand (read+write) hits
system.cpu.icache.overall_hits::cpu.inst   1422005288                       # number of overall hits
system.cpu.icache.overall_hits::total      1422005288                       # number of overall hits
system.cpu.icache.ReadReq_misses::cpu.inst          357                       # number of ReadReq misses
system.cpu.icache.ReadReq_misses::total           357                       # number of ReadReq misses
system.cpu.icache.demand_misses::cpu.inst          357                       # number of demand (read+write) misses
system.cpu.icache.demand_misses::total            357                       # number of demand (read+write) misses
system.cpu.icache.overall_misses::cpu.inst          357                       # number of overall misses
system.cpu.icache.overall_misses::total           357                       # number of overall misses
system.cpu.icache.ReadReq_miss_latency::cpu.inst     67904000                       # number of ReadReq miss cycles
system.cpu.icache.ReadReq_miss_latency::total     67904000                       # number of ReadReq miss cycles
system.cpu.icache.demand_miss_latency::cpu.inst     67904000                       # number of demand (read+write) miss cycles
system.cpu.icache.demand_miss_latency::total     67904000                       # number of demand (read+write) miss cycles
system.cpu.icache.overall_miss_latency::cpu.inst     67904000                       # number of overall miss cycles
system.cpu.icache.overall_miss_latency::total     67904000                       # number of overall miss cycles
system.cpu.icache.ReadReq_accesses::cpu.inst   1422005645                       # number of ReadReq accesses(hits+misses)
system.cpu.icache.ReadReq_accesses::total   1422005645                       # number of ReadReq accesses(hits+misses)
system.cpu.icache.demand_accesses::cpu.inst   1422005645                       # number of demand (read+write) accesses
system.cpu.icache.demand_accesses::total   1422005645                       # number of demand (read+write) accesses
system.cpu.icache.overall_accesses::cpu.inst   1422005645                       # number of overall (read+write) accesses
system.cpu.icache.overall_accesses::total   1422005645                       # number of overall (read+write) accesses
system.cpu.icache.ReadReq_miss_rate::cpu.inst     0.000000                       # miss rate for ReadReq accesses
system.cpu.icache.ReadReq_miss_rate::total     0.000000                       # miss rate for ReadReq accesses
system.cpu.icache.demand_miss_rate::cpu.inst     0.000000                       # miss rate for demand accesses
system.cpu.icache.demand_miss_rate::total     0.000000                       # miss rate for demand accesses
system.cpu.icache.overall_miss_rate::cpu.inst     0.000000                       # miss rate for overall accesses
system.cpu.icache.overall_miss_rate::total     0.000000                       # miss rate for overall accesses
system.cpu.icache.ReadReq_avg_miss_latency::cpu.inst 190207.282913                       # average ReadReq miss latency
system.cpu.icache.ReadReq_avg_miss_latency::total 190207.282913                       # average ReadReq miss latency
system.cpu.icache.demand_avg_miss_latency::cpu.inst 190207.282913                       # average overall miss latency
system.cpu.icache.demand_avg_miss_latency::total 190207.282913                       # average overall miss latency
system.cpu.icache.overall_avg_miss_latency::cpu.inst 190207.282913                       # average overall miss latency
system.cpu.icache.overall_avg_miss_latency::total 190207.282913                       # average overall miss latency
system.cpu.icache.blocked_cycles::no_mshrs            0                       # number of cycles access was blocked
system.cpu.icache.blocked_cycles::no_targets            0                       # number of cycles access was blocked
system.cpu.icache.blocked::no_mshrs                 0                       # number of cycles access was blocked
system.cpu.icache.blocked::no_targets               0                       # number of cycles access was blocked
system.cpu.icache.avg_blocked_cycles::no_mshrs          nan                       # average number of cycles each access was blocked
system.cpu.icache.avg_blocked_cycles::no_targets          nan                       # average number of cycles each access was blocked
system.cpu.icache.writebacks::writebacks           45                       # number of writebacks
system.cpu.icache.writebacks::total                45                       # number of writebacks
system.cpu.icache.ReadReq_mshr_misses::cpu.inst          357                       # number of ReadReq MSHR misses
system.cpu.icache.ReadReq_mshr_misses::total          357                       # number of ReadReq MSHR misses
system.cpu.icache.demand_mshr_misses::cpu.inst          357                       # number of demand (read+write) MSHR misses
system.cpu.icache.demand_mshr_misses::total          357                       # number of demand (read+write) MSHR misses
system.cpu.icache.overall_mshr_misses::cpu.inst          357                       # number of overall MSHR misses
system.cpu.icache.overall_mshr_misses::total          357                       # number of overall MSHR misses
system.cpu.icache.ReadReq_mshr_miss_latency::cpu.inst     67547000                       # number of ReadReq MSHR miss cycles
system.cpu.icache.ReadReq_mshr_miss_latency::total     67547000                       # number of ReadReq MSHR miss cycles
system.cpu.icache.demand_mshr_miss_latency::cpu.inst     67547000                       # number of demand (read+write) MSHR miss cycles
system.cpu.icache.demand_mshr_miss_latency::total     67547000                       # number of demand (read+write) MSHR miss cycles
system.cpu.icache.overall_mshr_miss_latency::cpu.inst     67547000                       # number of overall MSHR miss cycles
system.cpu.icache.overall_mshr_miss_latency::total     67547000                       # number of overall MSHR miss cycles
system.cpu.icache.ReadReq_mshr_miss_rate::cpu.inst     0.000000                       # mshr miss rate for ReadReq accesses
system.cpu.icache.ReadReq_mshr_miss_rate::total     0.000000                       # mshr miss rate for ReadReq accesses
system.cpu.icache.demand_mshr_miss_rate::cpu.inst     0.000000                       # mshr miss rate for demand accesses
system.cpu.icache.demand_mshr_miss_rate::total     0.000000                       # mshr miss rate for demand accesses
system.cpu.icache.overall_mshr_miss_rate::cpu.inst     0.000000                       # mshr miss rate for overall accesses
system.cpu.icache.overall_mshr_miss_rate::total     0.000000                       # mshr miss rate for overall accesses
system.cpu.icache.ReadReq_avg_mshr_miss_latency::cpu.inst 189207.282913                       # average ReadReq mshr miss latency
system.cpu.icache.ReadReq_avg_mshr_miss_latency::total 189207.282913                       # average ReadReq mshr miss latency
system.cpu.icache.demand_avg_mshr_miss_latency::cpu.inst 189207.282913                       # average overall mshr miss latency
system.cpu.icache.demand_avg_mshr_miss_latency::total 189207.282913                       # average overall mshr miss latency
system.cpu.icache.overall_avg_mshr_miss_latency::cpu.inst 189207.282913                       # average overall mshr miss latency
system.cpu.icache.overall_avg_mshr_miss_latency::total 189207.282913                       # average overall mshr miss latency
system.cpu.icache.replacements                     45                       # number of replacements
system.cpu.itb_walker_cache.tags.pwrStateResidencyTicks::UNDEFINED 1935023218000                       # Cumulative time (in ticks) in various power states
system.cpu.itb_walker_cache.tags.tagsinuse            0                       # Cycle average of tags in use
system.cpu.itb_walker_cache.tags.total_refs            0                       # Total number of references to valid blocks.
system.cpu.itb_walker_cache.tags.sampled_refs            0                       # Sample count of references to valid blocks.
system.cpu.itb_walker_cache.tags.avg_refs          nan                       # Average number of references to valid blocks.
system.cpu.itb_walker_cache.tags.warmup_cycle            0                       # Cycle when the warmup percentage was hit.
system.cpu.itb_walker_cache.tags.tag_accesses            0                       # Number of tag accesses
system.cpu.itb_walker_cache.tags.data_accesses            0                       # Number of data accesses
system.cpu.itb_walker_cache.pwrStateResidencyTicks::UNDEFINED 1935023218000                       # Cumulative time (in ticks) in various power states
system.cpu.itb_walker_cache.blocked_cycles::no_mshrs            0                       # number of cycles access was blocked
system.cpu.itb_walker_cache.blocked_cycles::no_targets            0                       # number of cycles access was blocked
system.cpu.itb_walker_cache.blocked::no_mshrs            0                       # number of cycles access was blocked
system.cpu.itb_walker_cache.blocked::no_targets            0                       # number of cycles access was blocked
system.cpu.itb_walker_cache.avg_blocked_cycles::no_mshrs          nan                       # average number of cycles each access was blocked
system.cpu.itb_walker_cache.avg_blocked_cycles::no_targets          nan                       # average number of cycles each access was blocked
system.cpu.itb_walker_cache.replacements            0                       # number of replacements
system.l2.tags.pwrStateResidencyTicks::UNDEFINED 1935023218000                       # Cumulative time (in ticks) in various power states
system.l2.tags.tagsinuse                  2046.641782                       # Cycle average of tags in use
system.l2.tags.total_refs                     6253958                       # Total number of references to valid blocks.
system.l2.tags.sampled_refs                   1710566                       # Sample count of references to valid blocks.
system.l2.tags.avg_refs                      3.656075                       # Average number of references to valid blocks.
system.l2.tags.warmup_cycle                    428500                       # Cycle when the warmup percentage was hit.
system.l2.tags.occ_blocks::writebacks        0.006217                       # Average occupied blocks per requestor
system.l2.tags.occ_blocks::cpu.inst          0.512818                       # Average occupied blocks per requestor
system.l2.tags.occ_blocks::cpu.data       2046.122747                       # Average occupied blocks per requestor
system.l2.tags.occ_percent::writebacks       0.000003                       # Average percentage of cache occupancy
system.l2.tags.occ_percent::cpu.inst         0.000250                       # Average percentage of cache occupancy
system.l2.tags.occ_percent::cpu.data         0.999083                       # Average percentage of cache occupancy
system.l2.tags.occ_percent::total            0.999337                       # Average percentage of cache occupancy
system.l2.tags.occ_task_id_blocks::1024          2048                       # Occupied blocks per task id
system.l2.tags.age_task_id_blocks_1024::0           26                       # Occupied blocks per task id
system.l2.tags.age_task_id_blocks_1024::1           78                       # Occupied blocks per task id
system.l2.tags.age_task_id_blocks_1024::2          796                       # Occupied blocks per task id
system.l2.tags.age_task_id_blocks_1024::3         1147                       # Occupied blocks per task id
system.l2.tags.age_task_id_blocks_1024::4            1                       # Occupied blocks per task id
system.l2.tags.occ_task_id_percent::1024            1                       # Percentage of cache occupancy per task id
system.l2.tags.tag_accesses                  51742230                       # Number of tag accesses
system.l2.tags.data_accesses                 51742230                       # Number of data accesses
system.l2.pwrStateResidencyTicks::UNDEFINED 1935023218000                       # Cumulative time (in ticks) in various power states
system.l2.WritebackDirty_hits::writebacks      1433817                       # number of WritebackDirty hits
system.l2.WritebackDirty_hits::total          1433817                       # number of WritebackDirty hits
system.l2.WritebackClean_hits::writebacks           45                       # number of WritebackClean hits
system.l2.WritebackClean_hits::total               45                       # number of WritebackClean hits
system.l2.ReadExReq_hits::cpu.data               3376                       # number of ReadExReq hits
system.l2.ReadExReq_hits::total                  3376                       # number of ReadExReq hits
system.l2.ReadSharedReq_hits::cpu.data        1413466                       # number of ReadSharedReq hits
system.l2.ReadSharedReq_hits::total           1413466                       # number of ReadSharedReq hits
system.l2.demand_hits::cpu.data               1416842                       # number of demand (read+write) hits
system.l2.demand_hits::total                  1416842                       # number of demand (read+write) hits
system.l2.overall_hits::cpu.data              1416842                       # number of overall hits
system.l2.overall_hits::total                 1416842                       # number of overall hits
system.l2.ReadExReq_misses::cpu.data            16992                       # number of ReadExReq misses
system.l2.ReadExReq_misses::total               16992                       # number of ReadExReq misses
system.l2.ReadCleanReq_misses::cpu.inst           357                       # number of ReadCleanReq misses
system.l2.ReadCleanReq_misses::total              357                       # number of ReadCleanReq misses
system.l2.ReadSharedReq_misses::cpu.data      1693200                       # number of ReadSharedReq misses
system.l2.ReadSharedReq_misses::total         1693200                       # number of ReadSharedReq misses
system.l2.demand_misses::cpu.inst                 357                       # number of demand (read+write) misses
system.l2.demand_misses::cpu.data             1710192                       # number of demand (read+write) misses
system.l2.demand_misses::total                1710549                       # number of demand (read+write) misses
system.l2.overall_misses::cpu.inst                357                       # number of overall misses
system.l2.overall_misses::cpu.data            1710192                       # number of overall misses
system.l2.overall_misses::total               1710549                       # number of overall misses
system.l2.ReadExReq_miss_latency::cpu.data    996430000                       # number of ReadExReq miss cycles
system.l2.ReadExReq_miss_latency::total     996430000                       # number of ReadExReq miss cycles
system.l2.ReadCleanReq_miss_latency::cpu.inst     67009500                       # number of ReadCleanReq miss cycles
system.l2.ReadCleanReq_miss_latency::total     67009500                       # number of ReadCleanReq miss cycles
system.l2.ReadSharedReq_miss_latency::cpu.data  53359607000                       # number of ReadSharedReq miss cycles
system.l2.ReadSharedReq_miss_latency::total  53359607000                       # number of ReadSharedReq miss cycles
system.l2.demand_miss_latency::cpu.inst      67009500                       # number of demand (read+write) miss cycles
system.l2.demand_miss_latency::cpu.data   54356037000                       # number of demand (read+write) miss cycles
system.l2.demand_miss_latency::total      54423046500                       # number of demand (read+write) miss cycles
system.l2.overall_miss_latency::cpu.inst     67009500                       # number of overall miss cycles
system.l2.overall_miss_latency::cpu.data  54356037000                       # number of overall miss cycles
system.l2.overall_miss_latency::total     54423046500                       # number of overall miss cycles
system.l2.WritebackDirty_accesses::writebacks      1433817                       # number of WritebackDirty accesses(hits+misses)
system.l2.WritebackDirty_accesses::total      1433817                       # number of WritebackDirty accesses(hits+misses)
system.l2.WritebackClean_accesses::writebacks           45                       # number of WritebackClean accesses(hits+misses)
system.l2.WritebackClean_accesses::total           45                       # number of WritebackClean accesses(hits+misses)
system.l2.ReadExReq_accesses::cpu.data          20368                       # number of ReadExReq accesses(hits+misses)
system.l2.ReadExReq_accesses::total             20368                       # number of ReadExReq accesses(hits+misses)
system.l2.ReadCleanReq_accesses::cpu.inst          357                       # number of ReadCleanReq accesses(hits+misses)
system.l2.ReadCleanReq_accesses::total            357                       # number of ReadCleanReq accesses(hits+misses)
system.l2.ReadSharedReq_accesses::cpu.data      3106666                       # number of ReadSharedReq accesses(hits+misses)
system.l2.ReadSharedReq_accesses::total       3106666                       # number of ReadSharedReq accesses(hits+misses)
system.l2.demand_accesses::cpu.inst               357                       # number of demand (read+write) accesses
system.l2.demand_accesses::cpu.data           3127034                       # number of demand (read+write) accesses
system.l2.demand_accesses::total              3127391                       # number of demand (read+write) accesses
system.l2.overall_accesses::cpu.inst              357                       # number of overall (read+write) accesses
system.l2.overall_accesses::cpu.data          3127034                       # number of overall (read+write) accesses
system.l2.overall_accesses::total             3127391                       # number of overall (read+write) accesses
system.l2.ReadExReq_miss_rate::cpu.data      0.834250                       # miss rate for ReadExReq accesses
system.l2.ReadExReq_miss_rate::total         0.834250                       # miss rate for ReadExReq accesses
system.l2.ReadCleanReq_miss_rate::cpu.inst            1                       # miss rate for ReadCleanReq accesses
system.l2.ReadCleanReq_miss_rate::total             1                       # miss rate for ReadCleanReq accesses
system.l2.ReadSharedReq_miss_rate::cpu.data     0.545022                       # miss rate for ReadSharedReq accesses
system.l2.ReadSharedReq_miss_rate::total     0.545022                       # miss rate for ReadSharedReq accesses
system.l2.demand_miss_rate::cpu.inst                1                       # miss rate for demand accesses
system.l2.demand_miss_rate::cpu.data         0.546905                       # miss rate for demand accesses
system.l2.demand_miss_rate::total            0.546957                       # miss rate for demand accesses
system.l2.overall_miss_rate::cpu.inst               1                       # miss rate for overall accesses
system.l2.overall_miss_rate::cpu.data        0.546905                       # miss rate for overall accesses
system.l2.overall_miss_rate::total           0.546957                       # miss rate for overall accesses
system.l2.ReadExReq_avg_miss_latency::cpu.data 58641.125235                       # average ReadExReq miss latency
system.l2.ReadExReq_avg_miss_latency::total 58641.125235                       # average ReadExReq miss latency
system.l2.ReadCleanReq_avg_miss_latency::cpu.inst 187701.680672                       # average ReadCleanReq miss latency
system.l2.ReadCleanReq_avg_miss_latency::total 187701.680672                       # average ReadCleanReq miss latency
system.l2.ReadSharedReq_avg_miss_latency::cpu.data 31514.060359                       # average ReadSharedReq miss latency
system.l2.ReadSharedReq_avg_miss_latency::total 31514.060359                       # average ReadSharedReq miss latency
system.l2.demand_avg_miss_latency::cpu.inst 187701.680672                       # average overall miss latency
system.l2.demand_avg_miss_latency::cpu.data 31783.587457                       # average overall miss latency
system.l2.demand_avg_miss_latency::total 31816.128331                       # average overall miss latency
system.l2.overall_avg_miss_latency::cpu.inst 187701.680672                       # average overall miss latency
system.l2.overall_avg_miss_latency::cpu.data 31783.587457                       # average overall miss latency
system.l2.overall_avg_miss_latency::total 31816.128331                       # average overall miss latency
system.l2.blocked_cycles::no_mshrs                  0                       # number of cycles access was blocked
system.l2.blocked_cycles::no_targets                0                       # number of cycles access was blocked
system.l2.blocked::no_mshrs                         0                       # number of cycles access was blocked
system.l2.blocked::no_targets                       0                       # number of cycles access was blocked
system.l2.avg_blocked_cycles::no_mshrs            nan                       # average number of cycles each access was blocked
system.l2.avg_blocked_cycles::no_targets          nan                       # average number of cycles each access was blocked
system.l2.writebacks::writebacks              1708128                       # number of writebacks
system.l2.writebacks::total                   1708128                       # number of writebacks
system.l2.ReadExReq_mshr_misses::cpu.data        16992                       # number of ReadExReq MSHR misses
system.l2.ReadExReq_mshr_misses::total          16992                       # number of ReadExReq MSHR misses
system.l2.ReadCleanReq_mshr_misses::cpu.inst          357                       # number of ReadCleanReq MSHR misses
system.l2.ReadCleanReq_mshr_misses::total          357                       # number of ReadCleanReq MSHR misses
system.l2.ReadSharedReq_mshr_misses::cpu.data      1693200                       # number of ReadSharedReq MSHR misses
system.l2.ReadSharedReq_mshr_misses::total      1693200                       # number of ReadSharedReq MSHR misses
system.l2.demand_mshr_misses::cpu.inst            357                       # number of demand (read+write) MSHR misses
system.l2.demand_mshr_misses::cpu.data        1710192                       # number of demand (read+write) MSHR misses
system.l2.demand_mshr_misses::total           1710549                       # number of demand (read+write) MSHR misses
system.l2.overall_mshr_misses::cpu.inst           357                       # number of overall MSHR misses
system.l2.overall_mshr_misses::cpu.data       1710192                       # number of overall MSHR misses
system.l2.overall_mshr_misses::total          1710549                       # number of overall MSHR misses
system.l2.ReadExReq_mshr_miss_latency::cpu.data    826510000                       # number of ReadExReq MSHR miss cycles
system.l2.ReadExReq_mshr_miss_latency::total    826510000                       # number of ReadExReq MSHR miss cycles
system.l2.ReadCleanReq_mshr_miss_latency::cpu.inst     63439500                       # number of ReadCleanReq MSHR miss cycles
system.l2.ReadCleanReq_mshr_miss_latency::total     63439500                       # number of ReadCleanReq MSHR miss cycles
system.l2.ReadSharedReq_mshr_miss_latency::cpu.data  36427607000                       # number of ReadSharedReq MSHR miss cycles
system.l2.ReadSharedReq_mshr_miss_latency::total  36427607000                       # number of ReadSharedReq MSHR miss cycles
system.l2.demand_mshr_miss_latency::cpu.inst     63439500                       # number of demand (read+write) MSHR miss cycles
system.l2.demand_mshr_miss_latency::cpu.data  37254117000                       # number of demand (read+write) MSHR miss cycles
system.l2.demand_mshr_miss_latency::total  37317556500                       # number of demand (read+write) MSHR miss cycles
system.l2.overall_mshr_miss_latency::cpu.inst     63439500                       # number of overall MSHR miss cycles
system.l2.overall_mshr_miss_latency::cpu.data  37254117000                       # number of overall MSHR miss cycles
system.l2.overall_mshr_miss_latency::total  37317556500                       # number of overall MSHR miss cycles
system.l2.ReadExReq_mshr_miss_rate::cpu.data     0.834250                       # mshr miss rate for ReadExReq accesses
system.l2.ReadExReq_mshr_miss_rate::total     0.834250                       # mshr miss rate for ReadExReq accesses
system.l2.ReadCleanReq_mshr_miss_rate::cpu.inst            1                       # mshr miss rate for ReadCleanReq accesses
system.l2.ReadCleanReq_mshr_miss_rate::total            1                       # mshr miss rate for ReadCleanReq accesses
system.l2.ReadSharedReq_mshr_miss_rate::cpu.data     0.545022                       # mshr miss rate for ReadSharedReq accesses
system.l2.ReadSharedReq_mshr_miss_rate::total     0.545022                       # mshr miss rate for ReadSharedReq accesses
system.l2.demand_mshr_miss_rate::cpu.inst            1                       # mshr miss rate for demand accesses
system.l2.demand_mshr_miss_rate::cpu.data     0.546905                       # mshr miss rate for demand accesses
system.l2.demand_mshr_miss_rate::total       0.546957                       # mshr miss rate for demand accesses
system.l2.overall_mshr_miss_rate::cpu.inst            1                       # mshr miss rate for overall accesses
system.l2.overall_mshr_miss_rate::cpu.data     0.546905                       # mshr miss rate for overall accesses
system.l2.overall_mshr_miss_rate::total      0.546957                       # mshr miss rate for overall accesses
system.l2.ReadExReq_avg_mshr_miss_latency::cpu.data 48641.125235                       # average ReadExReq mshr miss latency
system.l2.ReadExReq_avg_mshr_miss_latency::total 48641.125235                       # average ReadExReq mshr miss latency
system.l2.ReadCleanReq_avg_mshr_miss_latency::cpu.inst 177701.680672                       # average ReadCleanReq mshr miss latency
system.l2.ReadCleanReq_avg_mshr_miss_latency::total 177701.680672                       # average ReadCleanReq mshr miss latency
system.l2.ReadSharedReq_avg_mshr_miss_latency::cpu.data 21514.060359                       # average ReadSharedReq mshr miss latency
system.l2.ReadSharedReq_avg_mshr_miss_latency::total 21514.060359                       # average ReadSharedReq mshr miss latency
system.l2.demand_avg_mshr_miss_latency::cpu.inst 177701.680672                       # average overall mshr miss latency
system.l2.demand_avg_mshr_miss_latency::cpu.data 21783.587457                       # average overall mshr miss latency
system.l2.demand_avg_mshr_miss_latency::total 21816.128331                       # average overall mshr miss latency
system.l2.overall_avg_mshr_miss_latency::cpu.inst 177701.680672                       # average overall mshr miss latency
system.l2.overall_avg_mshr_miss_latency::cpu.data 21783.587457                       # average overall mshr miss latency
system.l2.overall_avg_mshr_miss_latency::total 21816.128331                       # average overall mshr miss latency
system.l2.replacements                        1708518                       # number of replacements
system.l3.tags.pwrStateResidencyTicks::UNDEFINED 1935023218000                       # Cumulative time (in ticks) in various power states
system.l3.tags.tagsinuse                 14224.738126                       # Cycle average of tags in use
system.l3.tags.total_refs                     3418775                       # Total number of references to valid blocks.
system.l3.tags.sampled_refs                     17458                       # Sample count of references to valid blocks.
system.l3.tags.avg_refs                    195.828560                       # Average number of references to valid blocks.
system.l3.tags.warmup_cycle                    418000                       # Cycle when the warmup percentage was hit.
system.l3.tags.occ_blocks::cpu.inst        143.686108                       # Average occupied blocks per requestor
system.l3.tags.occ_blocks::cpu.data      14081.052017                       # Average occupied blocks per requestor
system.l3.tags.occ_percent::cpu.inst         0.008770                       # Average percentage of cache occupancy
system.l3.tags.occ_percent::cpu.data         0.859439                       # Average percentage of cache occupancy
system.l3.tags.occ_percent::total            0.868209                       # Average percentage of cache occupancy
system.l3.tags.occ_task_id_blocks::1024         16384                       # Occupied blocks per task id
system.l3.tags.age_task_id_blocks_1024::0           21                       # Occupied blocks per task id
system.l3.tags.age_task_id_blocks_1024::1           42                       # Occupied blocks per task id
system.l3.tags.age_task_id_blocks_1024::2            2                       # Occupied blocks per task id
system.l3.tags.age_task_id_blocks_1024::3           27                       # Occupied blocks per task id
system.l3.tags.age_task_id_blocks_1024::4        16292                       # Occupied blocks per task id
system.l3.tags.occ_task_id_percent::1024            1                       # Percentage of cache occupancy per task id
system.l3.tags.tag_accesses                  13692558                       # Number of tag accesses
system.l3.tags.data_accesses                 13692558                       # Number of data accesses
system.l3.pwrStateResidencyTicks::UNDEFINED 1935023218000                       # Cumulative time (in ticks) in various power states
system.l3.WritebackDirty_hits::writebacks      1708128                       # number of WritebackDirty hits
system.l3.WritebackDirty_hits::total          1708128                       # number of WritebackDirty hits
system.l3.ReadSharedReq_hits::cpu.data        1693091                       # number of ReadSharedReq hits
system.l3.ReadSharedReq_hits::total           1693091                       # number of ReadSharedReq hits
system.l3.demand_hits::cpu.data               1693091                       # number of demand (read+write) hits
system.l3.demand_hits::total                  1693091                       # number of demand (read+write) hits
system.l3.overall_hits::cpu.data              1693091                       # number of overall hits
system.l3.overall_hits::total                 1693091                       # number of overall hits
system.l3.ReadExReq_misses::cpu.data            16992                       # number of ReadExReq misses
system.l3.ReadExReq_misses::total               16992                       # number of ReadExReq misses
system.l3.ReadSharedReq_misses::cpu.inst          357                       # number of ReadSharedReq misses
system.l3.ReadSharedReq_misses::cpu.data          109                       # number of ReadSharedReq misses
system.l3.ReadSharedReq_misses::total             466                       # number of ReadSharedReq misses
system.l3.demand_misses::cpu.inst                 357                       # number of demand (read+write) misses
system.l3.demand_misses::cpu.data               17101                       # number of demand (read+write) misses
system.l3.demand_misses::total                  17458                       # number of demand (read+write) misses
system.l3.overall_misses::cpu.inst                357                       # number of overall misses
system.l3.overall_misses::cpu.data              17101                       # number of overall misses
system.l3.overall_misses::total                 17458                       # number of overall misses
system.l3.ReadExReq_miss_latency::cpu.data    639598000                       # number of ReadExReq miss cycles
system.l3.ReadExReq_miss_latency::total     639598000                       # number of ReadExReq miss cycles
system.l3.ReadSharedReq_miss_latency::cpu.inst     59512500                       # number of ReadSharedReq miss cycles
system.l3.ReadSharedReq_miss_latency::cpu.data     24951500                       # number of ReadSharedReq miss cycles
system.l3.ReadSharedReq_miss_latency::total     84464000                       # number of ReadSharedReq miss cycles
system.l3.demand_miss_latency::cpu.inst      59512500                       # number of demand (read+write) miss cycles
system.l3.demand_miss_latency::cpu.data     664549500                       # number of demand (read+write) miss cycles
system.l3.demand_miss_latency::total        724062000                       # number of demand (read+write) miss cycles
system.l3.overall_miss_latency::cpu.inst     59512500                       # number of overall miss cycles
system.l3.overall_miss_latency::cpu.data    664549500                       # number of overall miss cycles
system.l3.overall_miss_latency::total       724062000                       # number of overall miss cycles
system.l3.WritebackDirty_accesses::writebacks      1708128                       # number of WritebackDirty accesses(hits+misses)
system.l3.WritebackDirty_accesses::total      1708128                       # number of WritebackDirty accesses(hits+misses)
system.l3.ReadExReq_accesses::cpu.data          16992                       # number of ReadExReq accesses(hits+misses)
system.l3.ReadExReq_accesses::total             16992                       # number of ReadExReq accesses(hits+misses)
system.l3.ReadSharedReq_accesses::cpu.inst          357                       # number of ReadSharedReq accesses(hits+misses)
system.l3.ReadSharedReq_accesses::cpu.data      1693200                       # number of ReadSharedReq accesses(hits+misses)
system.l3.ReadSharedReq_accesses::total       1693557                       # number of ReadSharedReq accesses(hits+misses)
system.l3.demand_accesses::cpu.inst               357                       # number of demand (read+write) accesses
system.l3.demand_accesses::cpu.data           1710192                       # number of demand (read+write) accesses
system.l3.demand_accesses::total              1710549                       # number of demand (read+write) accesses
system.l3.overall_accesses::cpu.inst              357                       # number of overall (read+write) accesses
system.l3.overall_accesses::cpu.data          1710192                       # number of overall (read+write) accesses
system.l3.overall_accesses::total             1710549                       # number of overall (read+write) accesses
system.l3.ReadExReq_miss_rate::cpu.data             1                       # miss rate for ReadExReq accesses
system.l3.ReadExReq_miss_rate::total                1                       # miss rate for ReadExReq accesses
system.l3.ReadSharedReq_miss_rate::cpu.inst            1                       # miss rate for ReadSharedReq accesses
system.l3.ReadSharedReq_miss_rate::cpu.data     0.000064                       # miss rate for ReadSharedReq accesses
system.l3.ReadSharedReq_miss_rate::total     0.000275                       # miss rate for ReadSharedReq accesses
system.l3.demand_miss_rate::cpu.inst                1                       # miss rate for demand accesses
system.l3.demand_miss_rate::cpu.data         0.009999                       # miss rate for demand accesses
system.l3.demand_miss_rate::total            0.010206                       # miss rate for demand accesses
system.l3.overall_miss_rate::cpu.inst               1                       # miss rate for overall accesses
system.l3.overall_miss_rate::cpu.data        0.009999                       # miss rate for overall accesses
system.l3.overall_miss_rate::total           0.010206                       # miss rate for overall accesses
system.l3.ReadExReq_avg_miss_latency::cpu.data 37641.125235                       # average ReadExReq miss latency
system.l3.ReadExReq_avg_miss_latency::total 37641.125235                       # average ReadExReq miss latency
system.l3.ReadSharedReq_avg_miss_latency::cpu.inst 166701.680672                       # average ReadSharedReq miss latency
system.l3.ReadSharedReq_avg_miss_latency::cpu.data 228912.844037                       # average ReadSharedReq miss latency
system.l3.ReadSharedReq_avg_miss_latency::total 181253.218884                       # average ReadSharedReq miss latency
system.l3.demand_avg_miss_latency::cpu.inst 166701.680672                       # average overall miss latency
system.l3.demand_avg_miss_latency::cpu.data 38860.271329                       # average overall miss latency
system.l3.demand_avg_miss_latency::total 41474.510253                       # average overall miss latency
system.l3.overall_avg_miss_latency::cpu.inst 166701.680672                       # average overall miss latency
system.l3.overall_avg_miss_latency::cpu.data 38860.271329                       # average overall miss latency
system.l3.overall_avg_miss_latency::total 41474.510253                       # average overall miss latency
system.l3.blocked_cycles::no_mshrs                  0                       # number of cycles access was blocked
system.l3.blocked_cycles::no_targets                0                       # number of cycles access was blocked
system.l3.blocked::no_mshrs                         0                       # number of cycles access was blocked
system.l3.blocked::no_targets                       0                       # number of cycles access was blocked
system.l3.avg_blocked_cycles::no_mshrs            nan                       # average number of cycles each access was blocked
system.l3.avg_blocked_cycles::no_targets          nan                       # average number of cycles each access was blocked
system.l3.writebacks::writebacks                  691                       # number of writebacks
system.l3.writebacks::total                       691                       # number of writebacks
system.l3.ReadExReq_mshr_misses::cpu.data        16992                       # number of ReadExReq MSHR misses
system.l3.ReadExReq_mshr_misses::total          16992                       # number of ReadExReq MSHR misses
system.l3.ReadSharedReq_mshr_misses::cpu.inst          357                       # number of ReadSharedReq MSHR misses
system.l3.ReadSharedReq_mshr_misses::cpu.data          109                       # number of ReadSharedReq MSHR misses
system.l3.ReadSharedReq_mshr_misses::total          466                       # number of ReadSharedReq MSHR misses
system.l3.demand_mshr_misses::cpu.inst            357                       # number of demand (read+write) MSHR misses
system.l3.demand_mshr_misses::cpu.data          17101                       # number of demand (read+write) MSHR misses
system.l3.demand_mshr_misses::total             17458                       # number of demand (read+write) MSHR misses
system.l3.overall_mshr_misses::cpu.inst           357                       # number of overall MSHR misses
system.l3.overall_mshr_misses::cpu.data         17101                       # number of overall MSHR misses
system.l3.overall_mshr_misses::total            17458                       # number of overall MSHR misses
system.l3.ReadExReq_mshr_miss_latency::cpu.data    469678000                       # number of ReadExReq MSHR miss cycles
system.l3.ReadExReq_mshr_miss_latency::total    469678000                       # number of ReadExReq MSHR miss cycles
system.l3.ReadSharedReq_mshr_miss_latency::cpu.inst     55942500                       # number of ReadSharedReq MSHR miss cycles
system.l3.ReadSharedReq_mshr_miss_latency::cpu.data     23861500                       # number of ReadSharedReq MSHR miss cycles
system.l3.ReadSharedReq_mshr_miss_latency::total     79804000                       # number of ReadSharedReq MSHR miss cycles
system.l3.demand_mshr_miss_latency::cpu.inst     55942500                       # number of demand (read+write) MSHR miss cycles
system.l3.demand_mshr_miss_latency::cpu.data    493539500                       # number of demand (read+write) MSHR miss cycles
system.l3.demand_mshr_miss_latency::total    549482000                       # number of demand (read+write) MSHR miss cycles
system.l3.overall_mshr_miss_latency::cpu.inst     55942500                       # number of overall MSHR miss cycles
system.l3.overall_mshr_miss_latency::cpu.data    493539500                       # number of overall MSHR miss cycles
system.l3.overall_mshr_miss_latency::total    549482000                       # number of overall MSHR miss cycles
system.l3.ReadExReq_mshr_miss_rate::cpu.data            1                       # mshr miss rate for ReadExReq accesses
system.l3.ReadExReq_mshr_miss_rate::total            1                       # mshr miss rate for ReadExReq accesses
system.l3.ReadSharedReq_mshr_miss_rate::cpu.inst            1                       # mshr miss rate for ReadSharedReq accesses
system.l3.ReadSharedReq_mshr_miss_rate::cpu.data     0.000064                       # mshr miss rate for ReadSharedReq accesses
system.l3.ReadSharedReq_mshr_miss_rate::total     0.000275                       # mshr miss rate for ReadSharedReq accesses
system.l3.demand_mshr_miss_rate::cpu.inst            1                       # mshr miss rate for demand accesses
system.l3.demand_mshr_miss_rate::cpu.data     0.009999                       # mshr miss rate for demand accesses
system.l3.demand_mshr_miss_rate::total       0.010206                       # mshr miss rate for demand accesses
system.l3.overall_mshr_miss_rate::cpu.inst            1                       # mshr miss rate for overall accesses
system.l3.overall_mshr_miss_rate::cpu.data     0.009999                       # mshr miss rate for overall accesses
system.l3.overall_mshr_miss_rate::total      0.010206                       # mshr miss rate for overall accesses
system.l3.ReadExReq_avg_mshr_miss_latency::cpu.data 27641.125235                       # average ReadExReq mshr miss latency
system.l3.ReadExReq_avg_mshr_miss_latency::total 27641.125235                       # average ReadExReq mshr miss latency
system.l3.ReadSharedReq_avg_mshr_miss_latency::cpu.inst 156701.680672                       # average ReadSharedReq mshr miss latency
system.l3.ReadSharedReq_avg_mshr_miss_latency::cpu.data 218912.844037                       # average ReadSharedReq mshr miss latency
system.l3.ReadSharedReq_avg_mshr_miss_latency::total 171253.218884                       # average ReadSharedReq mshr miss latency
system.l3.demand_avg_mshr_miss_latency::cpu.inst 156701.680672                       # average overall mshr miss latency
system.l3.demand_avg_mshr_miss_latency::cpu.data 28860.271329                       # average overall mshr miss latency
system.l3.demand_avg_mshr_miss_latency::total 31474.510253                       # average overall mshr miss latency
system.l3.overall_avg_mshr_miss_latency::cpu.inst 156701.680672                       # average overall mshr miss latency
system.l3.overall_avg_mshr_miss_latency::cpu.data 28860.271329                       # average overall mshr miss latency
system.l3.overall_avg_mshr_miss_latency::total 31474.510253                       # average overall mshr miss latency
system.l3.replacements                           1074                       # number of replacements
system.membus.snoop_filter.tot_requests         18247                       # Total number of requests made to the snoop filter.
system.membus.snoop_filter.hit_single_requests          789                       # Number of requests hitting in the snoop filter with a single holder of the requested data.
system.membus.snoop_filter.hit_multi_requests            0                       # Number of requests hitting in the snoop filter with multiple (>1) holders of the requested data.
system.membus.snoop_filter.tot_snoops               0                       # Total number of snoops made to the snoop filter.
system.membus.snoop_filter.hit_single_snoops            0                       # Number of snoops hitting in the snoop filter with a single holder of the requested data.
system.membus.snoop_filter.hit_multi_snoops            0                       # Number of snoops hitting in the snoop filter with multiple (>1) holders of the requested data.
system.membus.pwrStateResidencyTicks::UNDEFINED 1935023218000                       # Cumulative time (in ticks) in various power states
system.membus.trans_dist::ReadResp                466                       # Transaction distribution
system.membus.trans_dist::WritebackDirty          691                       # Transaction distribution
system.membus.trans_dist::CleanEvict               98                       # Transaction distribution
system.membus.trans_dist::ReadExReq             16992                       # Transaction distribution
system.membus.trans_dist::ReadExResp            16992                       # Transaction distribution
system.membus.trans_dist::ReadSharedReq           466                       # Transaction distribution
system.membus.pkt_count_system.l3.mem_side::system.mem_ctrls.port        35705                       # Packet count per connected master and slave (bytes)
system.membus.pkt_count_system.l3.mem_side::total        35705                       # Packet count per connected master and slave (bytes)
system.membus.pkt_count::total                  35705                       # Packet count per connected master and slave (bytes)
system.membus.pkt_size_system.l3.mem_side::system.mem_ctrls.port      1161536                       # Cumulative packet size per connected master and slave (bytes)
system.membus.pkt_size_system.l3.mem_side::total      1161536                       # Cumulative packet size per connected master and slave (bytes)
system.membus.pkt_size::total                 1161536                       # Cumulative packet size per connected master and slave (bytes)
system.membus.snoops                                0                       # Total snoops (count)
system.membus.snoopTraffic                          0                       # Total snoop traffic (bytes)
system.membus.snoop_fanout::samples             17458                       # Request fanout histogram
system.membus.snoop_fanout::mean                    0                       # Request fanout histogram
system.membus.snoop_fanout::stdev                   0                       # Request fanout histogram
system.membus.snoop_fanout::underflows              0      0.00%      0.00% # Request fanout histogram
system.membus.snoop_fanout::0                   17458    100.00%    100.00% # Request fanout histogram
system.membus.snoop_fanout::1                       0      0.00%    100.00% # Request fanout histogram
system.membus.snoop_fanout::overflows               0      0.00%    100.00% # Request fanout histogram
system.membus.snoop_fanout::min_value               0                       # Request fanout histogram
system.membus.snoop_fanout::max_value               0                       # Request fanout histogram
system.membus.snoop_fanout::total               17458                       # Request fanout histogram
system.membus.reqLayer2.occupancy            21014000                       # Layer occupancy (ticks)
system.membus.reqLayer2.utilization               0.0                       # Layer utilization (%)
system.membus.respLayer1.occupancy           87293000                       # Layer occupancy (ticks)
system.membus.respLayer1.utilization              0.0                       # Layer utilization (%)
system.tol2bus.snoop_filter.tot_requests      6253958                       # Total number of requests made to the snoop filter.
system.tol2bus.snoop_filter.hit_single_requests      3126567                       # Number of requests hitting in the snoop filter with a single holder of the requested data.
system.tol2bus.snoop_filter.hit_multi_requests            0                       # Number of requests hitting in the snoop filter with multiple (>1) holders of the requested data.
system.tol2bus.snoop_filter.tot_snoops            577                       # Total number of snoops made to the snoop filter.
system.tol2bus.snoop_filter.hit_single_snoops          577                       # Number of snoops hitting in the snoop filter with a single holder of the requested data.
system.tol2bus.snoop_filter.hit_multi_snoops            0                       # Number of snoops hitting in the snoop filter with multiple (>1) holders of the requested data.
system.tol2bus.pwrStateResidencyTicks::UNDEFINED 1935023218000                       # Cumulative time (in ticks) in various power states
system.tol2bus.trans_dist::ReadResp           3107023                       # Transaction distribution
system.tol2bus.trans_dist::WritebackDirty      3142636                       # Transaction distribution
system.tol2bus.trans_dist::WritebackClean           45                       # Transaction distribution
system.tol2bus.trans_dist::CleanEvict         1693478                       # Transaction distribution
system.tol2bus.trans_dist::ReadExReq            20368                       # Transaction distribution
system.tol2bus.trans_dist::ReadExResp           20368                       # Transaction distribution
system.tol2bus.trans_dist::ReadCleanReq           357                       # Transaction distribution
system.tol2bus.trans_dist::ReadSharedReq      3106666                       # Transaction distribution
system.tol2bus.pkt_count_system.cpu.icache.mem_side::system.l2.cpu_side          759                       # Packet count per connected master and slave (bytes)
system.tol2bus.pkt_count_system.cpu.dcache.mem_side::system.l2.cpu_side      9380590                       # Packet count per connected master and slave (bytes)
system.tol2bus.pkt_count::total               9381349                       # Packet count per connected master and slave (bytes)
system.tol2bus.pkt_size_system.cpu.icache.mem_side::system.l2.cpu_side        25728                       # Cumulative packet size per connected master and slave (bytes)
system.tol2bus.pkt_size_system.cpu.dcache.mem_side::system.l2.cpu_side    291894464                       # Cumulative packet size per connected master and slave (bytes)
system.tol2bus.pkt_size::total              291920192                       # Cumulative packet size per connected master and slave (bytes)
system.tol2bus.snoops                         1709592                       # Total snoops (count)
system.tol2bus.snoopTraffic                 109364416                       # Total snoop traffic (bytes)
system.tol2bus.snoop_fanout::samples          4836983                       # Request fanout histogram
system.tol2bus.snoop_fanout::mean            0.000119                       # Request fanout histogram
system.tol2bus.snoop_fanout::stdev           0.010921                       # Request fanout histogram
system.tol2bus.snoop_fanout::underflows             0      0.00%      0.00% # Request fanout histogram
system.tol2bus.snoop_fanout::0                4836406     99.99%     99.99% # Request fanout histogram
system.tol2bus.snoop_fanout::1                    577      0.01%    100.00% # Request fanout histogram
system.tol2bus.snoop_fanout::2                      0      0.00%    100.00% # Request fanout histogram
system.tol2bus.snoop_fanout::3                      0      0.00%    100.00% # Request fanout histogram
system.tol2bus.snoop_fanout::4                      0      0.00%    100.00% # Request fanout histogram
system.tol2bus.snoop_fanout::overflows              0      0.00%    100.00% # Request fanout histogram
system.tol2bus.snoop_fanout::min_value              0                       # Request fanout histogram
system.tol2bus.snoop_fanout::max_value              1                       # Request fanout histogram
system.tol2bus.snoop_fanout::total            4836983                       # Request fanout histogram
system.tol2bus.reqLayer0.occupancy         4560841000                       # Layer occupancy (ticks)
system.tol2bus.reqLayer0.utilization              0.2                       # Layer utilization (%)
system.tol2bus.respLayer0.occupancy            535500                       # Layer occupancy (ticks)
system.tol2bus.respLayer0.utilization             0.0                       # Layer utilization (%)
system.tol2bus.respLayer1.occupancy        4690551000                       # Layer occupancy (ticks)
system.tol2bus.respLayer1.utilization             0.2                       # Layer utilization (%)
system.tol3bus.pwrStateResidencyTicks::UNDEFINED 1935023218000                       # Cumulative time (in ticks) in various power states
system.tol3bus.trans_dist::ReadResp           1693557                       # Transaction distribution
system.tol3bus.trans_dist::WritebackDirty      1708819                       # Transaction distribution
system.tol3bus.trans_dist::CleanEvict             481                       # Transaction distribution
system.tol3bus.trans_dist::ReadExReq            16992                       # Transaction distribution
system.tol3bus.trans_dist::ReadExResp           16992                       # Transaction distribution
system.tol3bus.trans_dist::ReadSharedReq      1693557                       # Transaction distribution
system.tol3bus.pkt_count_system.l2.mem_side::system.l3.cpu_side      5129324                       # Packet count per connected master and slave (bytes)
system.tol3bus.pkt_size_system.l2.mem_side::system.l3.cpu_side    218795328                       # Cumulative packet size per connected master and slave (bytes)
system.tol3bus.snoops                            1074                       # Total snoops (count)
system.tol3bus.snoopTraffic                     44224                       # Total snoop traffic (bytes)
system.tol3bus.snoop_fanout::samples          3419849                       # Request fanout histogram
system.tol3bus.snoop_fanout::mean            0.000314                       # Request fanout histogram
system.tol3bus.snoop_fanout::stdev           0.017719                       # Request fanout histogram
system.tol3bus.snoop_fanout::underflows             0      0.00%      0.00% # Request fanout histogram
system.tol3bus.snoop_fanout::0                3418775     99.97%     99.97% # Request fanout histogram
system.tol3bus.snoop_fanout::1                   1074      0.03%    100.00% # Request fanout histogram
system.tol3bus.snoop_fanout::overflows              0      0.00%    100.00% # Request fanout histogram
system.tol3bus.snoop_fanout::min_value              0                       # Request fanout histogram
system.tol3bus.snoop_fanout::max_value              1                       # Request fanout histogram
system.tol3bus.snoop_fanout::total            3419849                       # Request fanout histogram
system.tol3bus.reqLayer0.occupancy         3417515500                       # Layer occupancy (ticks)
system.tol3bus.reqLayer0.utilization              0.2                       # Layer utilization (%)
system.tol3bus.respLayer0.occupancy        2565823500                       # Layer occupancy (ticks)
system.tol3bus.respLayer0.utilization             0.1                       # Layer utilization (%)

---------- End Simulation Statistics   ----------
